2
AlO_2Sigma (2-SG / C*V)
Al     0.000000     0.000000     0.617452
 O     0.000000     0.000000    -1.003359

-------- ENERGY AND PROPERTIES --------

 Rotational constants:       0.0000000       19.1573029       19.1573029 GHz

 EROCCSD(T)/aug-cc-pVTZ = -317.09473616 Eh

 MU_X      MU_Y      MU_Z       MU
 0.000    0.000    6.228    6.228
