1
C+.(2-X) - 
 C     0.000000     0.000000     0.000000

-------- ENERGY AND PROPERTIES --------

 Rotational constants:       0.0000000       0.0000000       0.0000000 GHz

ECCSD(T)/aug-cc-pVTZ = -37.370762258 Eh

  ALPHA_XX  ALPHA_YY  ALPHA_ZZ     ALPHA      MU_X      MU_Y      MU_Z       MU
     0.000     0.000     0.000     0.000     0.000     0.000     0.000     0.000
