4
c-C3H_2Ap (2-A / C1)
 H     1.769589    -0.046781     0.000008
 C     0.691061    -0.007530     0.000006
 C    -0.512533    -0.672010    -0.000004
 C    -0.473460     0.687336    -0.000004

-------- ENERGY AND PROPERTIES --------

 Rotational constants:       45.5741281       34.5022910       19.6363904 GHz

 EROCCSD(T)/aug-cc-pVTZ = -114.46626084 Eh

 MU_X      MU_Y      MU_Z       MU
 2.507    1.577    0.000    2.962
