7
c-C3H2OH+_1 (1-A' / CS)
 O     0.052383     1.474319     0.000000
 C     0.000000     0.204191     0.000000
 C    -0.649325    -1.002344    -0.000000
 C     0.702411    -0.967594    -0.000000
 H    -1.552720    -1.593535    -0.000000
 H     1.634610    -1.512137    -0.000000
 H    -0.819467     1.905600     0.000000

-------- ENERGY AND PROPERTIES --------

 Rotational constants:       30.0749393       7.5355525       6.0257464 GHz

 ECCSD(T)/aug-cc-pVTZ = -190.66865353 Eh

 MU_X      MU_Y      MU_Z       MU
 -1.576    -1.931    -0.000    2.492
