6
c-C3H2O_1A1 (1-A1 / C2V)
 O     0.000000    -0.000000     1.527509
 C     0.000000    -0.000000     0.330929
 C     0.000000     0.668716    -0.924504
 C    -0.000000    -0.668716    -0.924504
 H     0.000000     1.544195    -1.555793
 H    -0.000000    -1.544195    -1.555793

-------- ENERGY AND PROPERTIES --------

 Rotational constants:       32.5238073       7.9149606       6.3657888 GHz

 ECCSD(T)/aug-cc-pVTZ = -190.33979244 Eh

 MU_X      MU_Y      MU_Z       MU
 -0.000    0.000    -4.939    4.939
