6
c-C3H3+_1 (1-A1' / D3H)
 H     0.000000     1.862863     0.000000
 H     1.613287    -0.931432     0.000000
 H    -1.613287    -0.931432     0.000000
 C     0.000000     0.782824     0.000000
 C     0.677946    -0.391412     0.000000
 C    -0.677946    -0.391412     0.000000

-------- ENERGY AND PROPERTIES --------

 Rotational constants:       31.0491098       31.0491098       15.5245549 GHz

 ECCSD(T)/aug-cc-pVTZ = -115.5144869 Eh

 MU_X      MU_Y      MU_Z       MU
 -0.000    0.000    0.000    0.000
