10
C10-_2 (2-X / D*H)
 C     0.000000     0.000000     5.766701
 C     0.000000     0.000000     4.503611
 C     0.000000     0.000000     3.181350
 C     0.000000     0.000000     1.938037
 C     0.000000     0.000000     0.621279
 C     0.000000     0.000000    -0.621279
 C     0.000000     0.000000    -1.938037
 C     0.000000     0.000000    -3.181350
 C     0.000000     0.000000    -4.503611
 C     0.000000     0.000000    -5.766701

-------- ENERGY AND PROPERTIES --------

 Rotational constants:       0.0000000       0.3105806       0.3105806 GHz

 EROCCSD(T)/aug-cc-pVTZ = -380.00576368 Eh

 MU_X      MU_Y      MU_Z       MU
 -0.000    -0.000    -0.000    0.000
