11
C10H+_3 (3-SG / C*V)
 H     0.000000     0.000000    -6.673742
 C     0.000000     0.000000    -5.604863
 C     0.000000     0.000000    -4.393782
 C     0.000000     0.000000    -3.058653
 C     0.000000     0.000000    -1.820180
 C     0.000000     0.000000    -0.518859
 C     0.000000     0.000000     0.741509
 C     0.000000     0.000000     2.020741
 C     0.000000     0.000000     3.295931
 C     0.000000     0.000000     4.569321
 C     0.000000     0.000000     5.881126

-------- ENERGY AND PROPERTIES --------

 Rotational constants:       0.0000000       0.3044512       0.3044512 GHz

 EROCCSD(T)/aug-cc-pVTZ = -380.22163884 Eh

 MU_X      MU_Y      MU_Z       MU
 0.000    0.000    -3.258    3.258
