11
C10H-_1 (1-SG / C*V)
 H     0.000000     0.000000    -6.697082
 C     0.000000     0.000000    -5.636264
 C     0.000000     0.000000    -4.430100
 C     0.000000     0.000000    -3.067030
 C     0.000000     0.000000    -1.849113
 C     0.000000     0.000000    -0.501004
 C     0.000000     0.000000     0.724114
 C     0.000000     0.000000     2.063163
 C     0.000000     0.000000     3.293911
 C     0.000000     0.000000     4.633794
 C     0.000000     0.000000     5.884709

-------- ENERGY AND PROPERTIES --------

 Rotational constants:       0.0000000       0.3009514       0.3009514 GHz

 ECCSD(T)/aug-cc-pVTZ = -380.68593774 Eh

 MU_X      MU_Y      MU_Z       MU
 0.000    0.000    -16.364    16.364
