13
C10H3+_1 (1-A1 / C2V)
 H     0.000000     0.935603    -6.216402
 H    -0.000000    -0.935603    -6.216402
 H     0.000000     0.000000     6.876491
 C     0.000000    -0.000000    -5.664134
 C     0.000000    -0.000000    -4.374307
 C     0.000000    -0.000000    -3.083457
 C     0.000000    -0.000000    -1.835625
 C     0.000000    -0.000000    -0.526460
 C     0.000000     0.000000     0.706989
 C     0.000000     0.000000     2.034225
 C     0.000000     0.000000     3.255062
 C     0.000000     0.000000     4.604626
 C     0.000000     0.000000     5.809129

-------- ENERGY AND PROPERTIES --------

 Rotational constants:       286.4302285       0.2904577       0.2901634 GHz

 ECCSD(T)/aug-cc-pVTZ = -381.56658332 Eh

 MU_X      MU_Y      MU_Z       MU
 -0.000    -0.000    -5.697    5.697
