12
C10N2_1Sigma (1-SGG / D*H)
 N     0.000000     0.000000     6.975434
 N     0.000000     0.000000    -6.975434
 C     0.000000     0.000000     5.824633
 C     0.000000     0.000000     4.452593
 C     0.000000     0.000000     3.246256
 C     0.000000     0.000000     1.888420
 C     0.000000     0.000000     0.677657
 C     0.000000     0.000000    -0.677657
 C     0.000000     0.000000    -1.888420
 C     0.000000     0.000000    -3.246256
 C     0.000000     0.000000    -4.452593
 C     0.000000     0.000000    -5.824633

-------- ENERGY AND PROPERTIES --------

 Rotational constants:       0.0000000       0.1683330       0.1683330 GHz

 ECCSD(T)/aug-cc-pVTZ = -489.42620589 Eh

 MU_X      MU_Y      MU_Z       MU
 -0.000    -0.000    -0.000    0.000
