11
C10N_2Ap (2-A" / CS)
 C    -0.000142     1.393351     0.000000
 C    -0.000142     0.066011     0.000000
 C    -0.000142    -1.157499     0.000000
 C    -0.000142    -2.504619    -0.000000
 C    -0.000142    -3.715159    -0.000000
 C    -0.000142    -5.084599    -0.000000
 N    -0.000142    -6.236189    -0.000000
 C    -0.000142     2.634411     0.000000
 C    -0.000142     3.934911     0.000000
 C    -0.000142     5.206271     0.000000
 C     0.001442     6.502470    -0.000000

-------- ENERGY AND PROPERTIES --------

 Rotational constants:       24553609.9384427       0.2259300       0.2259299 GHz

 EROCCSD(T)/aug-cc-pVTZ = -434.61786901 Eh

 MU_X      MU_Y      MU_Z       MU
 -0.002    -0.116    0.000    0.116
