5
C2H3_2Ap (2-A' / CS)
 C     0.049560    -0.583475     0.000000
 C     0.049560     0.718257     0.000000
 H    -0.876468    -1.156253     0.000000
 H     0.971797    -1.154946     0.000000
 H    -0.690046     1.502509     0.000000

-------- ENERGY AND PROPERTIES --------

 Rotational constants:       233.9057833       33.0087349       28.9266168 GHz

 EROCCSD(T)/aug-cc-pVTZ = -77.75736638 Eh

 MU_X      MU_Y      MU_Z       MU
 -0.588    -0.238    0.000    0.634
