6
C2H4_1A1 (1-AG / D2H)
 C     0.000000     0.000000     0.660803
 C     0.000000     0.000000    -0.660803
 H     0.000000     0.922168     1.226909
 H    -0.000000    -0.922168     1.226909
 H     0.000000     0.922168    -1.226909
 H    -0.000000    -0.922168    -1.226909

-------- ENERGY AND PROPERTIES --------

 Rotational constants:       147.4184938       30.5398294       25.2988204 GHz

 ECCSD(T)/aug-cc-pVTZ = -78.443462031 Eh

 MU_X      MU_Y      MU_Z       MU
 -0.000    0.000    0.000    0.000
