7
C2H5_2Ap (2-A' / CS)
 C     0.011317    -0.692729    -0.000000
 C     0.011317     0.792236     0.000000
 H    -1.007961    -1.098687    -0.000000
 H     0.508742    -1.092545     0.883548
 H     0.508742    -1.092545    -0.883548
 H    -0.072661     1.343366    -0.923480
 H    -0.072661     1.343366     0.923480

-------- ENERGY AND PROPERTIES --------

 Rotational constants:       104.2165340       22.8711110       21.2054297 GHz

 EROCCSD(T)/aug-cc-pVTZ = -79.007916081 Eh

 MU_X      MU_Y      MU_Z       MU
 -0.137    -0.192    -0.000    0.236
