9
C2H5OH+_2 (2-A / C1)
 H    -1.304897    -0.781423    -0.941156
 H    -1.274906    -0.885330     0.882388
 H    -1.974180     0.594789     0.065246
 H     0.203088     1.113054     0.989116
 H     0.109969     1.193762    -0.879601
 C    -1.293027    -0.250868     0.003384
 C     0.220375     0.601593     0.028350
 O     1.145461    -0.332988    -0.127111
 H     1.513147    -0.675299     0.710498

-------- ENERGY AND PROPERTIES --------

 Rotational constants:       31.6781048       9.1377801       8.0299120 GHz

 EROCCSD(T)/aug-cc-pVTZ = -154.42777138 Eh

 MU_X      MU_Y      MU_Z       MU
 -1.137    0.598    1.639    2.083
