4
C2HO+_1 (1-A' / CS)
 H     1.651495    -0.664462     0.000000
 C    -0.865863    -0.410158     0.000000
 C     0.590614    -0.411579     0.000000
 O     0.000000     0.699360     0.000000

-------- ENERGY AND PROPERTIES --------

 Rotational constants:       41.1226368       31.8139614       17.9371401 GHz

 ECCSD(T)/aug-cc-pVTZ = -151.2646741 Eh

 MU_X      MU_Y      MU_Z       MU
 2.952    -1.654    0.000    3.384
