3
C2N+_1 (1-SG / C*V)
 C     0.000000     0.000000    -1.377408
 C     0.000000     0.000000     0.006512
 N     0.000000     0.000000     1.175054

-------- ENERGY AND PROPERTIES --------

 Rotational constants:       0.0000000       12.0035925       12.0035925 GHz

 ECCSD(T)/aug-cc-pVTZ = -130.1373702 Eh

 MU_X      MU_Y      MU_Z       MU
 0.000    0.000    -2.660    2.660
