4
C2N2+_2 (2-X / C*V)
 N    -0.000000    -0.000000    -1.854495
 C    -0.000000    -0.000000    -0.672456
 C     0.000000     0.000000     0.672456
 N     0.000000     0.000000     1.854495

-------- ENERGY AND PROPERTIES --------

 Rotational constants:       0.0000000       4.7156713       4.7156713 GHz

 EROCCSD(T)/aug-cc-pVTZ = -184.87457915 Eh

 MU_X      MU_Y      MU_Z       MU
 0.000    -0.000    0.000    0.000
