3
C2O+_2 (2-A" / CS)
 C     1.480552    -0.221238     0.000000
 C    -0.000000     0.094883     0.000000
 O    -1.110414     0.094766    -0.000000

-------- ENERGY AND PROPERTIES --------

 Rotational constants:       3323.6172952       10.8187147       10.7836130 GHz

 EROCCSD(T)/aug-cc-pVTZ = -150.62503359 Eh

 MU_X      MU_Y      MU_Z       MU
 1.718    0.228    0.000    1.733
