3
C2P_2Pi (i-X / C*V)
 C     0.000000     0.000000    -1.902625
 C     0.000000     0.000000    -0.601956
 P     0.000000     0.000000     1.001833

-------- ENERGY AND PROPERTIES --------

 Rotational constants:       0.0000000       6.4087140       6.4087140 GHz

 EROCCSD(T)/aug-cc-pVTZ = -416.78509761 Eh

 MU_X      MU_Y      MU_Z       MU
 0.000    0.000    3.276    3.276
