4
C3H+_1 (1-SG / C*V)
 H     0.000000    -0.000000     2.220778
 C     0.000000    -0.000000     1.139313
 C    -0.000000     0.000000    -0.084270
 C    -0.000000     0.000000    -1.425172

-------- ENERGY AND PROPERTIES --------

 Rotational constants:       0.0000000       11.2621114       11.2621114 GHz

 ECCSD(T)/aug-cc-pVTZ = -114.13297611 Eh

 MU_X      MU_Y      MU_Z       MU
 0.000    -0.000    2.552    2.552
