8
C3H5_2A2 (2-A2 / C2V)
 C     0.000000    -0.000000     0.446184
 H     0.000000    -0.000000     1.530848
 C     0.000000     1.218394    -0.196629
 C    -0.000000    -1.218394    -0.196629
 H     0.000000     2.147153     0.352646
 H    -0.000000    -2.147153     0.352646
 H     0.000000     1.272795    -1.276848
 H    -0.000000    -1.272795    -1.276848

-------- ENERGY AND PROPERTIES --------

 Rotational constants:       54.8541019       10.4881609       8.8046943 GHz

 EROCCSD(T)/aug-cc-pVTZ = -117.04033556 Eh

 MU_X      MU_Y      MU_Z       MU
 -0.000    -0.000    0.028    0.028
