9
C3H6_1Ap (1-A' / CS)
 C     1.282468     0.148190     0.000000
 C     0.000000     0.475575     0.000000
 C    -1.130678    -0.503627     0.000000
 H     1.597167    -0.888772     0.000000
 H     2.059651     0.900026     0.000000
 H    -0.273486     1.526224     0.000000
 H    -0.762173    -1.528447     0.000000
 H    -1.765950    -0.364928     0.876583
 H    -1.765950    -0.364928    -0.876583

-------- ENERGY AND PROPERTIES --------

 Rotational constants:       46.9961951       9.3958335       8.2250960 GHz

 ECCSD(T)/aug-cc-pVTZ = -117.69003016 Eh

 MU_X      MU_Y      MU_Z       MU
 -0.410    -0.045    -0.000    0.412
