4
C3P_2Pi (i-X / C*V)
 P     0.000000     0.000000     1.573582
 C     0.000000     0.000000    -0.008882
 C     0.000000     0.000000    -1.320291
 C     0.000000     0.000000    -2.604784

-------- ENERGY AND PROPERTIES --------

 Rotational constants:       0.0000000       2.8233668       2.8233668 GHz

 EROCCSD(T)/aug-cc-pVTZ = -454.79536209 Eh

 MU_X      MU_Y      MU_Z       MU
 0.000    0.000    3.562    3.562
