4
C3S_1Sigma (1-SG / C*V)
 S     0.000000     0.000000     1.491761
 C     0.000000     0.000000    -0.040663
 C     0.000000     0.000000    -1.332948
 C     0.000000     0.000000    -2.604418

-------- ENERGY AND PROPERTIES --------

 Rotational constants:       0.0000000       2.9063843       2.9063843 GHz

 ECCSD(T)/aug-cc-pVTZ = -511.68419563 Eh

 MU_X      MU_Y      MU_Z       MU
 0.000    0.000    3.238    3.238
