7
C4H3_2A (2-A' / CS)
 C     0.002769     1.866526     0.000000
 C    -0.001092    -0.758099     0.000000
 C    -0.002476    -1.980649     0.000000
 H     0.929196     2.434915     0.000000
 H    -0.921013     2.439079     0.000000
 H    -0.003390    -3.042867     0.000000
 C     0.000000     0.567034     0.000000

-------- ENERGY AND PROPERTIES --------

 Rotational constants:       292.9653485       4.1809883       4.1221598 GHz

 EROCCSD(T)/aug-cc-pVTZ = -153.78058661 Eh

 MU_X      MU_Y      MU_Z       MU
 0.002    0.178    0.000    0.178
