9
C4H5_2A (2-A / C1)
 C     1.761018     0.142669    -0.000000
 C     0.559874    -0.424864    -0.000000
 C    -1.885015    -0.196917     0.000000
 H     2.665593    -0.448377     0.000001
 H     1.871521     1.220186     0.000000
 C    -0.687642     0.336843    -0.000000
 H    -2.900572     0.161694     0.000001
 H    -0.589480     1.424479     0.000000
 H     0.463530    -1.504369     0.000000

-------- ENERGY AND PROPERTIES --------

 Rotational constants:       49.2040814       4.6368546       4.2375224 GHz

 EROCCSD(T)/aug-cc-pVTZ = -155.01778911 Eh

 MU_X      MU_Y      MU_Z       MU
 -0.013    0.573    0.000    0.573
