5
C4N+_1 (1-SG / C*V)
 N     0.000000     0.000000     2.418112
 C     0.000000     0.000000     1.261275
 C     0.000000     0.000000    -0.093453
 C     0.000000     0.000000    -1.324982
 C     0.000000     0.000000    -2.663972

-------- ENERGY AND PROPERTIES --------

 Rotational constants:       0.0000000       2.4378859       2.4378859 GHz

 ECCSD(T)/aug-cc-pVTZ = -206.21033066 Eh

 MU_X      MU_Y      MU_Z       MU
 0.000    0.000    -3.900    3.900
