6
C4N2_1Sigma (1-SGG / D*H)
 N     0.000000     0.000000     3.124898
 N     0.000000     0.000000    -3.124898
 C     0.000000     0.000000     1.975588
 C     0.000000     0.000000     0.600063
 C     0.000000     0.000000    -0.600063
 C     0.000000     0.000000    -1.975588

-------- ENERGY AND PROPERTIES --------

 Rotational constants:       0.0000000       1.3448362       1.3448362 GHz

 ECCSD(T)/aug-cc-pVTZ = -261.37924187 Eh

 MU_X      MU_Y      MU_Z       MU
 -0.000    0.000    0.000    0.000
