5
C4N_2Pi (i-X / C*V)
 N     0.000000     0.000000     2.420275
 C     0.000000     0.000000     1.262071
 C     0.000000     0.000000    -0.090017
 C     0.000000     0.000000    -1.335201
 C     0.000000     0.000000    -2.660508

-------- ENERGY AND PROPERTIES --------

 Rotational constants:       0.0000000       2.4347386       2.4347386 GHz

 EROCCSD(T)/aug-cc-pVTZ = -206.56075644 Eh

 MU_X      MU_Y      MU_Z       MU
 0.000    0.000    -0.510    0.510
