5
C5-_2 (2-X / D*H)
 C     0.000000     0.000000     2.575702
 C     0.000000     0.000000     1.299490
 C     0.000000     0.000000     0.000000
 C     0.000000     0.000000    -1.299490
 C     0.000000     0.000000    -2.575702

-------- ENERGY AND PROPERTIES --------

 Rotational constants:       0.0000000       2.5300583       2.5300583 GHz

 EROCCSD(T)/aug-cc-pVTZ = -189.94803107 Eh

 MU_X      MU_Y      MU_Z       MU
 -0.000    0.000    0.000    0.000
