9
C5H3N+_2 (2-A" / CS)
 H     0.401146     3.504954     0.908180
 H    -1.116361     3.364832     0.000000
 H     0.401146     3.504954    -0.908180
 C    -0.046626     3.091051     0.000000
 C    -0.009602     1.678898     0.000000
 C     0.000000     0.422468     0.000000
 C     0.016626    -0.842632    -0.000000
 C     0.034255    -2.179046    -0.000000
 N     0.049450    -3.342739    -0.000000

-------- ENERGY AND PROPERTIES --------

 Rotational constants:       156.6893285       1.2355202       1.2352193 GHz

 EROCCSD(T)/aug-cc-pVTZ = -246.16136167 Eh

 MU_X      MU_Y      MU_Z       MU
 -0.213    6.267    0.000    6.271
