10
C5H4N+_1 (1-A / C1)
 H     3.146607    -0.568488     1.053211
 H     3.008186    -1.342269    -0.526448
 H     3.575687     0.376863    -0.386197
 C     2.898684    -0.388367    -0.007025
 C     1.546778     0.048476    -0.018519
 C     0.374067     0.415865    -0.004319
 C    -0.901362     0.836834     0.003303
 C    -1.985178    -0.062652     0.001219
 H    -1.130673     1.902010     0.011289
 N    -2.885391    -0.781294     0.000028

-------- ENERGY AND PROPERTIES --------

 Rotational constants:       17.8864504       1.4913706       1.3883295 GHz

 ECCSD(T)/aug-cc-pVTZ = -246.82238179 Eh

 MU_X      MU_Y      MU_Z       MU
 4.769    2.533    0.131    5.401
