10
C5H5_2A (2-A / C1)
 C    -2.346467    -0.033584    -0.000046
 C    -1.039668    -0.399972     0.000032
 C     0.024614     0.517741     0.000083
 C     1.366541     0.132404    -0.000008
 H    -0.196539     1.578225    -0.000019
 C     2.528227    -0.196621    -0.000100
 H     3.550112    -0.486692     0.000260
 H    -3.137062    -0.768367    -0.000039
 H    -2.632176     1.010060    -0.000052
 H    -0.783817    -1.453036     0.000085

-------- ENERGY AND PROPERTIES --------

 Rotational constants:       41.0293025       2.4265126       2.2910195 GHz

 EROCCSD(T)/aug-cc-pVTZ = -193.05718576 Eh

 MU_X      MU_Y      MU_Z       MU
 -0.468    0.035    0.000    0.469
