11
C5H6_1Ap (1-A' / CS)
 C    -2.322738    -0.419663     0.000000
 H    -2.750303    -0.910215     0.876337
 H    -2.750303    -0.910215    -0.876337
 H    -2.635547     0.623129     0.000000
 C    -0.836092    -0.541037     0.000000
 H    -0.418750    -1.542176     0.000000
 C     0.000000     0.495070     0.000000
 H    -0.392586     1.506392     0.000000
 C     1.420515     0.363379     0.000000
 C     2.616930     0.275757     0.000000
 H     3.675795     0.192051     0.000000

-------- ENERGY AND PROPERTIES --------

 Rotational constants:       38.8707323       2.2639270       2.1677362 GHz

 ECCSD(T)/aug-cc-pVTZ = -193.70063362 Eh

 MU_X      MU_Y      MU_Z       MU
 -1.168    -0.395    0.000    1.233
