13
C5H8_1Ap (1-A' / CS)
 C    -2.410735     0.748294     0.000000
 C    -1.406957    -0.123544     0.000000
 C     0.000000     0.250657     0.000000
 C     1.001061    -0.626698     0.000000
 C     2.451125    -0.269967     0.000000
 H    -2.224103     1.815306     0.000000
 H    -3.442153     0.426009     0.000000
 H    -1.621054    -1.187967     0.000000
 H     0.221483     1.314755     0.000000
 H     0.758294    -1.685958     0.000000
 H     2.590543     0.810003     0.000000
 H     2.955013    -0.682302     0.876351
 H     2.955013    -0.682302    -0.876351

-------- ENERGY AND PROPERTIES --------

 Rotational constants:       28.8210102       2.1778728       2.0502961 GHz

 ECCSD(T)/aug-cc-pVTZ = -194.95212054 Eh

 MU_X      MU_Y      MU_Z       MU
 0.625    -0.214    0.000    0.661
