8
C6H2_1Sigma (1-SGG / D*H)
 H     0.000000     0.000000     4.235552
 H     0.000000     0.000000    -4.235552
 C     0.000000     0.000000     3.172735
 C     0.000000     0.000000     1.971632
 C     0.000000     0.000000     0.603495
 C     0.000000     0.000000    -0.603495
 C     0.000000     0.000000    -1.971632
 C     0.000000     0.000000    -3.172735

-------- ENERGY AND PROPERTIES --------

 Rotational constants:       0.0000000       1.3306891       1.3306891 GHz

 ECCSD(T)/aug-cc-pVTZ = -229.21864314 Eh

 MU_X      MU_Y      MU_Z       MU
 -0.000    -0.000    -0.000    0.000
