13
C6H7+_1 (1-A' / CS)
 H     2.144250    -2.397492     0.866306
 H     2.144250    -2.397492    -0.866306
 H     2.317488    -0.847620     0.000000
 H    -0.128427    -2.745626     0.000000
 H    -1.555989    -0.837224     0.000000
 H     1.069591     0.798807     0.000000
 H    -2.130568     3.591913     0.000000
 C     1.818724    -1.809885     0.000000
 C     0.356634    -1.773062     0.000000
 C    -0.486357    -0.680195     0.000000
 C    -0.000000     0.615394     0.000000
 C    -0.819192     1.734004     0.000000
 C    -1.513241     2.719532     0.000000

-------- ENERGY AND PROPERTIES --------

 Rotational constants:       16.9337129       1.5725302       1.4514101 GHz

 ECCSD(T)/aug-cc-pVTZ = -232.03285421 Eh

 MU_X      MU_Y      MU_Z       MU
 0.330    -0.707    -0.000    0.780
