7
C7+_2 (2-X / D*H)
 C     0.000000     0.000000     3.868004
 C     0.000000     0.000000     2.550296
 C     0.000000     0.000000     1.277869
 C     0.000000     0.000000     0.000000
 C     0.000000     0.000000    -1.277869
 C     0.000000     0.000000    -2.550296
 C     0.000000     0.000000    -3.868004

-------- ENERGY AND PROPERTIES --------

 Rotational constants:       0.0000000       0.9116409       0.9116409 GHz

 EROCCSD(T)/aug-cc-pVTZ = -265.47464431 Eh

 MU_X      MU_Y      MU_Z       MU
 -0.000    0.000    0.000    0.000
