7
C7-_2 (2-X / D*H)
 C     0.000000     0.000000     3.849988
 C     0.000000     0.000000     2.581005
 C     0.000000     0.000000     1.273030
 C     0.000000     0.000000     0.000000
 C     0.000000     0.000000    -1.273030
 C     0.000000     0.000000    -2.581005
 C     0.000000     0.000000    -3.849988

-------- ENERGY AND PROPERTIES --------

 Rotational constants:       0.0000000       0.9113968       0.9113968 GHz

 EROCCSD(T)/aug-cc-pVTZ = -265.97236228 Eh

 MU_X      MU_Y      MU_Z       MU
 -0.000    0.000    -0.000    0.000
