8
C7H+_1 (1-SG / C*V)
 H     0.000000     0.000000    -4.757172
 C     0.000000     0.000000    -3.686108
 C     0.000000     0.000000    -2.478128
 C     0.000000     0.000000    -1.140350
 C     0.000000     0.000000     0.088553
 C     0.000000     0.000000     1.397777
 C     0.000000     0.000000     2.649430
 C     0.000000     0.000000     3.961688

-------- ENERGY AND PROPERTIES --------

 Rotational constants:       0.0000000       0.8850686       0.8850686 GHz

 ECCSD(T)/aug-cc-pVTZ = -266.21094496 Eh

 MU_X      MU_Y      MU_Z       MU
 0.000    0.000    -2.299    2.299
