9
C7H2+_2 (2-B2 / C2V)
 H     0.000000     0.936268    -4.207713
 H    -0.000000    -0.936268    -4.207713
 C     0.000000     0.000000    -3.654127
 C     0.000000     0.000000    -2.350466
 C     0.000000     0.000000    -1.072243
 C     0.000000     0.000000     0.194090
 C     0.000000     0.000000     1.478818
 C     0.000000     0.000000     2.745863
 C     0.000000     0.000000     4.060635

-------- ENERGY AND PROPERTIES --------

 Rotational constants:       286.0234893       0.8562294       0.8536738 GHz

 EROCCSD(T)/aug-cc-pVTZ = -266.81739794 Eh

 MU_X      MU_Y      MU_Z       MU
 -0.000    0.000    -6.388    6.388
