10
C7H3+_1 (1-A1 / C2V)
 H     0.000000     0.934469    -4.321128
 H    -0.000000    -0.934469    -4.321128
 H     0.000000     0.000000     4.959654
 C     0.000000    -0.000000    -3.767552
 C     0.000000    -0.000000    -2.447380
 C     0.000000    -0.000000    -1.200498
 C     0.000000     0.000000     0.113303
 C     0.000000     0.000000     1.342055
 C     0.000000     0.000000     2.683197
 C     0.000000     0.000000     3.890645

-------- ENERGY AND PROPERTIES --------

 Rotational constants:       287.1258299       0.8263432       0.8239718 GHz

 ECCSD(T)/aug-cc-pVTZ = -267.53222473 Eh

 MU_X      MU_Y      MU_Z       MU
 -0.000    -0.000    -3.426    3.426
