12
C7H5+_1 (1-A' / CS)
 H     2.729911     2.816604     0.000000
 H     3.257591     1.027991    -0.000000
 H    -2.076871     1.462661     0.000000
 H    -2.751954    -0.870353     0.000000
 H     0.512746    -3.560664    -0.000000
 C     2.462256     1.765276     0.000000
 C     1.193292     1.394166     0.000000
 C    -0.000000     1.049657     0.000000
 C    -1.316972     0.692228     0.000000
 C    -1.691233    -0.635934     0.000000
 C    -0.815477    -1.717777    -0.000000
 C    -0.110436    -2.693656    -0.000000

-------- ENERGY AND PROPERTIES --------

 Rotational constants:       4.9657777       1.6119508       1.2169230 GHz

 ECCSD(T)/aug-cc-pVTZ = -268.78873433 Eh

 MU_X      MU_Y      MU_Z       MU
 1.981    0.890    -0.000    2.172
