8
C7N+_3 (3-SG / C*V)
 N     0.000000     0.000000     4.320815
 C     0.000000     0.000000     3.162687
 C     0.000000     0.000000     1.810417
 C     0.000000     0.000000     0.574012
 C     0.000000     0.000000    -0.725567
 C     0.000000     0.000000    -1.995550
 C     0.000000     0.000000    -3.270883
 C     0.000000     0.000000    -4.596063

-------- ENERGY AND PROPERTIES --------

 Rotational constants:       0.0000000       0.5871588       0.5871588 GHz

 EROCCSD(T)/aug-cc-pVTZ = -320.24102524 Eh

 MU_X      MU_Y      MU_Z       MU
 0.000    0.000    -4.861    4.861
