8
C7N_2Pi (i-X / C*V)
 N     0.000000     0.000000     4.324214
 C     0.000000     0.000000     3.172045
 C     0.000000     0.000000     1.804520
 C     0.000000     0.000000     0.590418
 C     0.000000     0.000000    -0.748024
 C     0.000000     0.000000    -1.982561
 C     0.000000     0.000000    -3.299039
 C     0.000000     0.000000    -4.582274

-------- ENERGY AND PROPERTIES --------

 Rotational constants:       0.0000000       0.5860867       0.5860867 GHz

 EROCCSD(T)/aug-cc-pVTZ = -320.59686283 Eh

 MU_X      MU_Y      MU_Z       MU
 0.000    0.000    -0.319    0.319
