9
C8H-_1 (1-SG / C*V)
 H     0.000000     0.000000    -5.414750
 C     0.000000     0.000000    -4.354436
 C     0.000000     0.000000    -3.146645
 C     0.000000     0.000000    -1.784423
 C     0.000000     0.000000    -0.564081
 C     0.000000     0.000000     0.782250
 C     0.000000     0.000000     2.010358
 C     0.000000     0.000000     3.355102
 C     0.000000     0.000000     4.604334

-------- ENERGY AND PROPERTIES --------

 Rotational constants:       0.0000000       0.5856410       0.5856410 GHz

 ECCSD(T)/aug-cc-pVTZ = -304.6653453 Eh

 MU_X      MU_Y      MU_Z       MU
 0.000    0.000    -12.707    12.707
