11
C8H3+_1 (1-A1 / C2V)
 H     0.000000     0.936575    -4.942186
 H    -0.000000    -0.936575    -4.942186
 H     0.000000    -0.000000     5.596953
 C     0.000000     0.000000    -4.390261
 C     0.000000     0.000000    -3.103178
 C     0.000000     0.000000    -1.807904
 C     0.000000     0.000000    -0.565163
 C     0.000000    -0.000000     0.752473
 C     0.000000    -0.000000     1.977931
 C     0.000000    -0.000000     3.322310
 C     0.000000    -0.000000     4.528366

-------- ENERGY AND PROPERTIES --------

 Rotational constants:       285.8360087       0.5597953       0.5587011 GHz

 ECCSD(T)/aug-cc-pVTZ = -305.54494127 Eh

 MU_X      MU_Y      MU_Z       MU
 -0.000    0.000    -3.505    3.505
