12
C8H4+_2 (2-B2 / D2)
 H    -0.328129     0.874072     5.046184
 H     0.328129    -0.874072     5.046184
 H     0.328129     0.874072    -5.046184
 H    -0.328129    -0.874072    -5.046184
 C     0.000000     0.000000     4.493294
 C     0.000000     0.000000     3.179172
 C     0.000000     0.000000     1.919758
 C     0.000000     0.000000     0.628339
 C     0.000000     0.000000    -0.628339
 C     0.000000     0.000000    -1.919758
 C     0.000000     0.000000    -3.179172
 C     0.000000     0.000000    -4.493294

-------- ENERGY AND PROPERTIES --------

 Rotational constants:       143.8201429       0.5445088       0.5429609 GHz

 EROCCSD(T)/aug-cc-pVTZ = -306.15860364 Eh

 MU_X      MU_Y      MU_Z       MU
 -0.000    0.000    -0.000    0.000
