13
C8H5+_1 (1-A' / CS)
 H    -1.059635     4.832590     0.000000
 H     0.468829     4.883383     0.894799
 H     0.468829     4.883383    -0.894799
 H     0.020653    -5.151466     0.933376
 H     0.020653    -5.151466    -0.933376
 C    -0.018651     4.495868     0.000000
 C    -0.006700     3.060013     0.000000
 C    -0.005496     1.843290     0.000000
 C    -0.001354     0.512789     0.000000
 C     0.003010    -0.721661     0.000000
 C     0.008191    -2.029530     0.000000
 C     0.013205    -3.279681     0.000000
 C     0.018650    -4.597141     0.000000

-------- ENERGY AND PROPERTIES --------

 Rotational constants:       102.2684645       0.5244115       0.5234349 GHz

 ECCSD(T)/aug-cc-pVTZ = -306.79831636 Eh

 MU_X      MU_Y      MU_Z       MU
 -0.043    -3.950    -0.000    3.950
