9
C9_1Sigma (1-SG / C*V)
 C     0.000000     0.000000    -5.104401
 C     0.000000     0.000000    -3.826158
 C     0.000000     0.000000    -2.539511
 C     0.000000     0.000000    -1.273078
 C     0.000000     0.000000    -0.000004
 C     0.000000     0.000000     1.273016
 C     0.000000     0.000000     2.539547
 C     0.000000     0.000000     3.826158
 C     0.000000     0.000000     5.104429

-------- ENERGY AND PROPERTIES --------

 Rotational constants:       0.0000000       0.4318204       0.4318204 GHz

 ECCSD(T)/aug-cc-pVTZ = -341.85832163 Eh

 MU_X      MU_Y      MU_Z       MU
 0.000    0.000    0.005    0.005
