10
C9H+_1 (1-SG / C*V)
 H     0.000000     0.000000    -6.031777
 C     0.000000     0.000000    -4.963088
 C     0.000000     0.000000    -3.757042
 C     0.000000     0.000000    -2.412687
 C     0.000000     0.000000    -1.188905
 C     0.000000     0.000000     0.131209
 C     0.000000     0.000000     1.368064
 C     0.000000     0.000000     2.669275
 C     0.000000     0.000000     3.925874
 C     0.000000     0.000000     5.232597

-------- ENERGY AND PROPERTIES --------

 Rotational constants:       0.0000000       0.4177372       0.4177372 GHz

 ECCSD(T)/aug-cc-pVTZ = -342.23694881 Eh

 MU_X      MU_Y      MU_Z       MU
 0.000    0.000    -1.405    1.405
