11
C9H2+_2 (2-B2 / C2V)
 H     0.000000     0.934625    -5.477006
 H    -0.000000    -0.934625    -5.477006
 C     0.000000    -0.000000    -4.923073
 C     0.000000    -0.000000    -3.619364
 C     0.000000    -0.000000    -2.343145
 C     0.000000    -0.000000    -1.074968
 C     0.000000     0.000000     0.207919
 C     0.000000     0.000000     1.469998
 C     0.000000     0.000000     2.754511
 C     0.000000     0.000000     4.022516
 C     0.000000     0.000000     5.331273

-------- ENERGY AND PROPERTIES --------

 Rotational constants:       287.0299884       0.4075921       0.4070141 GHz

 EROCCSD(T)/aug-cc-pVTZ = -342.84210573 Eh

 MU_X      MU_Y      MU_Z       MU
 -0.000    0.000    -8.177    8.177
