13
C9H4+_2 (2-A / C1)
 H    -5.406026    -0.629029    -0.816235
 H    -5.437917     1.008732    -0.101782
 H    -5.393994    -0.437211     0.939205
 H     6.344587    -0.002955     0.000459
 C    -5.041597    -0.000883     0.000135
 C    -3.607423     0.005500    -0.002215
 C    -2.385274     0.003763    -0.001434
 C    -1.058884     0.002683    -0.000852
 C     0.177334     0.001756    -0.000352
 C     1.495479     0.000771     0.000012
 C     2.727434    -0.000130     0.000313
 C     4.065568    -0.001234     0.000338
 C     5.276254    -0.002149     0.000448

-------- ENERGY AND PROPERTIES --------

 Rotational constants:       158.4962402       0.3823831       0.3823696 GHz

 EROCCSD(T)/aug-cc-pVTZ = -344.784894959 Eh

 MU_X      MU_Y      MU_Z       MU
 -0.386    -0.060    0.022    0.391
