14
C9H5+_1 (1-A' / CS)
 H    -5.514697    -0.494645     0.892811
 H    -5.514697    -0.494645    -0.892811
 H    -5.481488     1.036386     0.000000
 H     5.775691     0.937284     0.000000
 H     5.776401    -0.934678     0.000000
 C    -5.132461     0.000661     0.000000
 C    -3.694749    -0.004475     0.000000
 C    -2.479922    -0.002173     0.000000
 C    -1.145885    -0.001467     0.000000
 C     0.085225    -0.000848     0.000000
 C     1.396390    -0.000330     0.000000
 C     2.643123     0.000168     0.000000
 C     3.934799     0.000619     0.000000
 C     5.224097     0.001094     0.000000

-------- ENERGY AND PROPERTIES --------

 Rotational constants:       102.1267591       0.3742719       0.3737915 GHz

 ECCSD(T)/aug-cc-pVTZ = -344.80982945 Eh

 MU_X      MU_Y      MU_Z       MU
 -0.088    3.959    -0.000    3.960
