10
C9H_2Pi (i-X / C*V)
 H     0.000000     0.000000    -6.042231
 C     0.000000     0.000000    -4.978703
 C     0.000000     0.000000    -3.774514
 C     0.000000     0.000000    -2.417844
 C     0.000000     0.000000    -1.197070
 C     0.000000     0.000000     0.133926
 C     0.000000     0.000000     1.374303
 C     0.000000     0.000000     2.675532
 C     0.000000     0.000000     3.948408
 C     0.000000     0.000000     5.243004

-------- ENERGY AND PROPERTIES --------

 Rotational constants:       0.0000000       0.4149407       0.4149407 GHz

 EROCCSD(T)/aug-cc-pVTZ = -342.52289313 Eh

 MU_X      MU_Y      MU_Z       MU
 0.000    0.000    -6.225    6.225
