10
C9O_1A (1-A' / CS)
 C    -0.013277    -2.081264    -0.000000
 C    -0.006691    -0.797762    -0.000000
 C     0.000000     0.464308    -0.000000
 C     0.007926     1.745362     0.000000
 C     0.015790     3.006537     0.000000
 C     0.024968     4.291739     0.000000
 O     0.033088     5.440683     0.000000
 C    -0.018848    -3.340292    -0.000000
 C    -0.024404    -4.634992    -0.000000
 C    -0.029582    -5.907881    -0.000000

-------- ENERGY AND PROPERTIES --------

 Rotational constants:       974073.2105863       0.2951458       0.2951457 GHz

 ECCSD(T)/aug-cc-pVTZ = -417.09626144 Eh

 MU_X      MU_Y      MU_Z       MU
 0.032    6.633    0.000    6.633
