3
CCP+_1 (1-A' / CS)
 C     1.308459     0.978266     0.000000
 C     0.000000     0.780658     0.000000
 P    -0.523384    -0.703570    -0.000000

-------- ENERGY AND PROPERTIES --------

 Rotational constants:       107.7058402       8.6458327       8.0033802 GHz

 ECCSD(T)/aug-cc-pVTZ = -416.45177714 Eh

 MU_X      MU_Y      MU_Z       MU
 -1.548    -1.810    -0.000    2.381
