2
CF+_1 (1-SG / C*V)
 C    -0.000000     0.000000    -0.690865
 F     0.000000    -0.000000     0.460577

-------- ENERGY AND PROPERTIES --------

 Rotational constants:       0.0000000       51.8291976       51.8291976 GHz

 ECCSD(T)/aug-cc-pVTZ = -137.28172706 Eh

 MU_X      MU_Y      MU_Z       MU
 -0.000    0.000    -1.305    1.305
