3
CH2+_2 (2-A1 / C2V)
 C    -0.000000     0.000000     0.095026
 H     0.000000     1.025376    -0.285078
 H    -0.000000    -1.025376    -0.285078

-------- ENERGY AND PROPERTIES --------

 Rotational constants:       2026.8853375       238.4711053       213.3675644 GHz

 EROCCSD(T)/aug-cc-pVTZ = -38.699911278 Eh

 MU_X      MU_Y      MU_Z       MU
 -0.000    -0.000    -0.488    0.488
