3
CH2_3B1 (3-B1 / C2V)
 C    -0.000000     0.000000     0.104690
 H     0.000000     0.990718    -0.314071
 H    -0.000000    -0.990718    -0.314071

-------- ENERGY AND PROPERTIES --------

 Rotational constants:       1669.9428334       255.4476746       221.5566202 GHz

 EROCCSD(T)/aug-cc-pVTZ = -39.08004219 Eh

 MU_X      MU_Y      MU_Z       MU
 -0.000    -0.000    -0.577    0.577
