7
CH2CCH2_1A1 (1-A / C1)
 C     0.000034    -0.000001     0.000000
 C    -0.000034     0.006346     1.299132
 C     0.000023    -0.006346    -1.299126
 H    -0.083537     0.933308     1.851155
 H     0.083397    -0.915155     1.860226
 H     0.924233     0.074391    -1.856151
 H    -0.924232    -0.092542    -1.855261

-------- ENERGY AND PROPERTIES --------

 Rotational constants:       145.5718098       9.0045203       9.0045139 GHz

 ECCSD(T)/aug-cc-pVTZ = -116.44070988 Eh

 MU_X      MU_Y      MU_Z       MU
 -0.000    -0.000    -0.000    0.000
