6
CH2CNH_1Ap (1-A' / CS)
 N    -0.054207     1.275249     0.000000
 C    -0.000000     0.059120     0.000000
 C    -0.053541    -1.244675     0.000000
 H     0.844313     1.754045     0.000000
 H    -0.071809    -1.783727     0.933762
 H    -0.071809    -1.783727    -0.933762

-------- ENERGY AND PROPERTIES --------

 Rotational constants:       202.3025888       9.7880146       9.5989809 GHz

 ECCSD(T)/aug-cc-pVTZ = -132.49121235 Eh

 MU_X      MU_Y      MU_Z       MU
 1.462    -0.719    0.000    1.629
