7
CH2CHCN_1Ap (1-A' / CS)
 C     1.312522     0.969389     0.000000
 C     0.000000     0.779122     0.000000
 C    -0.580096    -0.531166     0.000000
 H     1.722800     1.968879     0.000000
 H     2.002340     0.137225     0.000000
 H    -0.697035     1.606046     0.000000
 N    -1.060380    -1.573746     0.000000

-------- ENERGY AND PROPERTIES --------

 Rotational constants:       50.3979944       5.0198697       4.5651591 GHz

 ECCSD(T)/aug-cc-pVTZ = -170.54347336 Eh

 MU_X      MU_Y      MU_Z       MU
 2.268    3.741    0.000    4.375
