8
CH2CCHCN_1Ap (1-A' / CS)
 C     0.000000     0.768812     0.000000
 C     1.314632     0.204920     0.000000
 C    -1.072630     0.021336     0.000000
 C    -2.141369    -0.706610     0.000000
 H    -0.076621     1.848829     0.000000
 H    -2.597284    -1.021142     0.930081
 H    -2.597284    -1.021142    -0.930081
 N     2.381056    -0.219613     0.000000

-------- ENERGY AND PROPERTIES --------

 Rotational constants:       26.0920762       2.7159892       2.5024057 GHz

 ECCSD(T)/aug-cc-pVTZ = -208.53734692 Eh

 MU_X      MU_Y      MU_Z       MU
 -4.734    0.850    0.000    4.810
