4
CH3_2B2 (2-A2" / D3H)
 C     0.000000     0.000000     0.000000
 H    -0.000000     1.076422     0.000000
 H     0.932209    -0.538211     0.000000
 H    -0.932209    -0.538211     0.000000

-------- ENERGY AND PROPERTIES --------

 Rotational constants:       288.5198294       288.5198294       144.2599147 GHz

 EROCCSD(T)/aug-cc-pVTZ = -39.763629758 Eh

 MU_X      MU_Y      MU_Z       MU
 0.000    0.000    0.000    0.000
