8
CH3CHOH+_1 (1-A' / CS)
 C     0.000000     0.441063     0.000000
 C    -1.130284    -0.461154     0.000000
 O     1.171973    -0.015296     0.000000
 H    -0.136873     1.523626     0.000000
 H    -0.833123    -1.504919     0.000000
 H    -1.754746    -0.213602     0.868296
 H    -1.754746    -0.213602    -0.868296
 H     1.885410     0.651413     0.000000

-------- ENERGY AND PROPERTIES --------

 Rotational constants:       53.2191450       9.8640116       8.7600300 GHz

 ECCSD(T)/aug-cc-pVTZ = -153.90313493 Eh

 MU_X      MU_Y      MU_Z       MU
 0.235    2.558    -0.000    2.569
