6
CH3CN+_2 (2-A' / CS)
 C     0.126905    -1.155707    -0.000000
 C    -0.000000     0.240852     0.000000
 H    -0.930693    -1.523399    -0.000000
 H     0.587777    -1.516386     0.925348
 H     0.587777    -1.516386    -0.925348
 N    -0.143756     1.435043     0.000000

-------- ENERGY AND PROPERTIES --------

 Rotational constants:       153.9248249       9.3439130       9.3148776 GHz

 EROCCSD(T)/aug-cc-pVTZ = -132.08690401 Eh

 MU_X      MU_Y      MU_Z       MU
 0.108    -2.602    -0.000    2.604
