7
CH3C3_2Ap (2-A / C1)
 C    -2.246740     0.000239     0.002558
 C    -0.916124     0.000003    -0.001599
 C     0.324069    -0.000328    -0.010133
 C     1.765499     0.000647    -0.003636
 H     2.172206    -0.878565    -0.505357
 H     2.174380     0.905026    -0.456364
 H     2.093194    -0.029826     1.038581

-------- ENERGY AND PROPERTIES --------

 Rotational constants:       159.9306322       4.0755936       4.0739964 GHz

 EROCCSD(T)/aug-cc-pVTZ = -153.72005845 Eh

 MU_X      MU_Y      MU_Z       MU
 4.859    -0.004    0.067    4.860
