10
CH3C5N_1Ap (1-A1 / C3V)
 N     0.000000     0.000000     3.992955
 C     0.000000     0.000000     2.841925
 C     0.000000     0.000000     1.469075
 C     0.000000     0.000000     0.263760
 C     0.000000     0.000000    -1.102258
 C     0.000000     0.000000    -2.305927
 C     0.000000     0.000000    -3.757133
 H     0.000000     1.021522    -4.135783
 H    -0.884664    -0.510761    -4.135783
 H     0.884664    -0.510761    -4.135783

-------- ENERGY AND PROPERTIES --------

 Rotational constants:       160.1826054       0.7819821       0.7819821 GHz

 ECCSD(T)/aug-cc-pVTZ = -284.55564392 Eh

 MU_X      MU_Y      MU_Z       MU
 -0.000    0.000    -6.432    6.432
