9
CH3CONH2_1Ap (1-A' / CS)
 C    -1.424846    -0.309254     0.000000
 C     0.040667     0.081441     0.000000
 O     0.403265     1.247536     0.000000
 N     0.930175    -0.956635     0.000000
 H    -1.584547    -1.388140     0.000000
 H    -1.896860     0.125778     0.881315
 H    -1.896860     0.125778    -0.881315
 H     1.913052    -0.743582     0.000000
 H     0.632402    -1.913965     0.000000

-------- ENERGY AND PROPERTIES --------

 Rotational constants:       10.8161589       9.2663801       5.1499784 GHz

 ECCSD(T)/aug-cc-pVTZ = -208.90850492 Eh

 MU_X      MU_Y      MU_Z       MU
 1.574    -3.934    0.000    4.237
