9
CH3CHCH2_1Ap (1-A' / CS)
 C    -1.130662    -0.503646     0.000000
 C     0.000000     0.475569     0.000000
 C     1.282462     0.148220     0.000000
 H     1.597189    -0.888739     0.000000
 H     2.059673     0.900027     0.000000
 H    -0.273572     1.526200     0.000000
 H    -0.762194    -1.528477     0.000000
 H    -1.765949    -0.364935     0.876574
 H    -1.765949    -0.364935    -0.876574

-------- ENERGY AND PROPERTIES --------

 Rotational constants:       46.9969831       9.3958369       8.2251143 GHz

 ECCSD(T)/aug-cc-pVTZ = -117.69002965 Eh

 MU_X      MU_Y      MU_Z       MU
 -0.410    -0.045    0.000    0.412
