8
CH3CHOH_2A (2-A / C1)
 C    -0.091781     0.506967    -0.100922
 C     1.223054    -0.163691     0.011736
 O    -1.160583    -0.339276     0.021572
 H    -0.231743     1.522617     0.251036
 H     1.290356    -0.989656    -0.698369
 H     2.027641     0.539105    -0.196562
 H     1.387329    -0.582112     1.012446
 H    -1.976559     0.164594    -0.006007

-------- ENERGY AND PROPERTIES --------

 Rotational constants:       46.2975719       9.5333362       8.3595889 GHz

 EROCCSD(T)/aug-cc-pVTZ = -154.14796619 Eh

 MU_X      MU_Y      MU_Z       MU
 -0.321    1.371    0.277    1.435
