6
CH3CC(^2A') - 1-propynl radical
 C     0.000000     0.000000    -1.265607
 C     0.000000     0.000000     0.192550
 C     0.000000     0.000000     1.487014
 H     1.025398     0.000000    -1.644291
 H    -0.512699     0.888021    -1.644291
 H    -0.512699    -0.888021    -1.644291

-------- ENERGY AND PROPERTIES --------

 Rotational constants:       9.0233115      9.0233115    158.9556564 GHz

ERCCSD(T)/aug-cc-pVTZ = -115.714892 Eh

  ALPHA_XX  ALPHA_YY  ALPHA_ZZ     ALPHA      MU_X      MU_Y      MU_Z       MU
     9.991     5.028     7.414     7.478     0.000     0.000     4.197     4.197
