8
CH3C3N_1Ap (1-A1 / C3V)
 C     0.000000     0.000000    -2.468464
 C     0.000000     0.000000    -1.016438
 C     0.000000     0.000000     0.183673
 C     0.000000     0.000000     1.560938
 H    -0.000000     1.021931    -2.844741
 H    -0.885018    -0.510966    -2.844741
 H     0.885018    -0.510966    -2.844741
 N     0.000000     0.000000     2.710851

-------- ENERGY AND PROPERTIES --------

 Rotational constants:       160.0544135       2.0796899       2.0796899 GHz

 ECCSD(T)/aug-cc-pVTZ = -208.54280077 Eh

 MU_X      MU_Y      MU_Z       MU
 -0.000    0.000    -5.478    5.478
