8
CH3NH3+_1 (1-A1 / C3V)
 H    -0.000000    -1.030602    -1.136207
 H     0.892528     0.515301    -1.136207
 H    -0.892528     0.515301    -1.136207
 C     0.000000     0.000000    -0.797777
 N     0.000000     0.000000     0.707604
 H     0.000000     0.952176     1.080686
 H     0.824609    -0.476088     1.080686
 H    -0.824609    -0.476088     1.080686

-------- ENERGY AND PROPERTIES --------

 Rotational constants:       84.9011743       20.1680192       20.1680192 GHz

 ECCSD(T)/aug-cc-pVTZ = -96.0619477 Eh

 MU_X      MU_Y      MU_Z       MU
 -0.000    0.000    2.166    2.166
