6
CH3O2+_1 (1-A / C1)
 C     0.382285     0.459632    -0.000100
 O     1.202195    -0.327349     0.013048
 O    -1.131408    -0.121502    -0.055550
 H     0.256266     1.540198    -0.018399
 H    -1.902105     0.376571     0.272456
 H    -1.214172    -1.083755     0.086561

-------- ENERGY AND PROPERTIES --------

 Rotational constants:       60.9507729       10.0024387       8.6287686 GHz

 ECCSD(T)/aug-cc-pVTZ = -189.77698566 Eh

 MU_X      MU_Y      MU_Z       MU
 -4.310    1.787    0.822    4.737
