5
CH3O_2A (2-A / C1)
 C    -0.576198     0.000035    -0.011999
 H    -0.999317    -0.904428    -0.460973
 H    -0.999461     0.905338    -0.459078
 H    -0.871050    -0.001231     1.050323
 O     0.790877     0.000014    -0.007284

-------- ENERGY AND PROPERTIES --------

 Rotational constants:       158.3838687       28.0046179       27.8348950 GHz

 EROCCSD(T)/aug-cc-pVTZ = -114.88502605 Eh

 MU_X      MU_Y      MU_Z       MU
 -1.871    -0.000    0.094    1.873
