6
CH3OH+_2 (2-A" / CS)
 C    -0.024407     0.631041     0.000000
 O    -0.024407    -0.711372     0.000000
 H     0.869245    -1.123896     0.000000
 H    -0.733601     0.951089     0.817995
 H     0.939658     1.126451     0.000000
 H    -0.733601     0.951089    -0.817995

-------- ENERGY AND PROPERTIES --------

 Rotational constants:       126.6640949       27.1803436       25.4137375 GHz

 EROCCSD(T)/aug-cc-pVTZ = -115.16078791 Eh

 MU_X      MU_Y      MU_Z       MU
 1.390    -0.106    0.000    1.394
