8
CH3OCHO_1Ap (1-A' / CS)
 C    -1.350789     0.400456     0.000000
 C     0.926884    -0.086431     0.000000
 O     0.000000     0.869726     0.000000
 O     0.708834    -1.261216     0.000000
 H     1.924514     0.366397     0.000000
 H    -1.974235     1.287649     0.000000
 H    -1.538763    -0.203135     0.885558
 H    -1.538763    -0.203135    -0.885558

-------- ENERGY AND PROPERTIES --------

 Rotational constants:       20.2342251       7.0075258       5.3801207 GHz

 ECCSD(T)/aug-cc-pVTZ = -228.74488474 Eh

 MU_X      MU_Y      MU_Z       MU
 -0.772    1.837    0.000    1.992
