5
CH4+_2 (2-B2 / C2V)
 C     0.000000     0.000000     0.107948
 H     0.000000     0.564658    -0.934799
 H     0.957202    -0.000000     0.610955
 H    -0.957202     0.000000     0.610955
 H    -0.000000    -0.564658    -0.934799

-------- ENERGY AND PROPERTIES --------

 Rotational constants:       203.0060434       154.5270665       112.9431464 GHz

 EROCCSD(T)/aug-cc-pVTZ = -39.972415094 Eh

 MU_X      MU_Y      MU_Z       MU
 -0.000    0.000    -1.478    1.478
