2
CO_1Sigma (1-SG / C*V)
 C     0.000000     0.000000    -0.641050
 O     0.000000     0.000000     0.480788

-------- ENERGY AND PROPERTIES --------

 Rotational constants:       0.0000000       58.5696840       58.5696840 GHz

 ECCSD(T)/aug-cc-pVTZ = -113.16175426 Eh

 MU_X      MU_Y      MU_Z       MU
 0.000    0.000    -0.235    0.235
