8
COOCH4+_2 (2-A' / CS)
 H    -0.054474    -1.769570     0.898011
 H    -0.054474    -1.769570    -0.898011
 H     1.457276    -1.442507     0.000000
 H    -1.882542    -0.073766     0.000000
 C     0.376763    -1.319278     0.000000
 C     0.000000     0.121275     0.000000
 O     0.962863     0.931136     0.000000
 O    -1.178658     0.599293     0.000000

-------- ENERGY AND PROPERTIES --------

 Rotational constants:       11.7533565       9.4658223       5.4261528 GHz

 EROCCSD(T)/aug-cc-pVTZ = -228.37868808 Eh

 MU_X      MU_Y      MU_Z       MU
 -1.396    -2.875    -0.000    3.196
