13
H2C10N+_1 (1-A1 / C2V)
 H     0.000000     0.934453    -6.851207
 H    -0.000000    -0.934453    -6.851207
 C     0.000000     0.000000    -6.298342
 C     0.000000     0.000000    -4.980507
 C     0.000000     0.000000    -3.730182
 C     0.000000     0.000000    -2.423080
 C     0.000000     0.000000    -1.187042
 C     0.000000     0.000000     0.137185
 C     0.000000     0.000000     1.360574
 C     0.000000     0.000000     2.703379
 C     0.000000     0.000000     3.913708
 C     0.000000     0.000000     5.282312
 N     0.000000     0.000000     6.433484

-------- ENERGY AND PROPERTIES --------

 Rotational constants:       287.1356625       0.2169342       0.2167705 GHz

 ECCSD(T)/aug-cc-pVTZ = -435.63965607 Eh

 MU_X      MU_Y      MU_Z       MU
 -0.000    -0.000    -16.153    16.153
