6
H2C3O+_2 (2-B2 / C2V)
 H     0.000000     0.937470    -2.429580
 H    -0.000000    -0.937470    -2.429580
 C     0.000000    -0.000000    -1.870537
 C     0.000000    -0.000000    -0.572216
 C     0.000000     0.000000     0.748418
 O     0.000000     0.000000     1.878146

-------- ENERGY AND PROPERTIES --------

 Rotational constants:       285.2904955       4.1930401       4.1323058 GHz

 EROCCSD(T)/aug-cc-pVTZ = -190.01805814 Eh

 MU_X      MU_Y      MU_Z       MU
 -0.000    -0.000    -4.275    4.275
