5
H2C3_1A1 (1-A1 / C2V)
 C     0.000000    -0.000000    -1.118530
 C     0.000000     0.000000     0.199272
 C     0.000000     0.000000     1.480312
 H     0.000000     0.926865    -1.683158
 H    -0.000000    -0.926865    -1.683158

-------- ENERGY AND PROPERTIES --------

 Rotational constants:       291.8563154       10.7065834       10.3277170 GHz

 ECCSD(T)/aug-cc-pVTZ = -115.12034915 Eh

 MU_X      MU_Y      MU_Z       MU
 -0.000    -0.000    -4.335    4.335
