8
H2C6_1A1 (1-A1 / C2V)
 C     0.000000     0.000000    -3.012662
 C     0.000000     0.000000    -1.713029
 C     0.000000     0.000000    -0.435438
 C     0.000000    -0.000000     0.829312
 C     0.000000    -0.000000     2.121895
 C     0.000000    -0.000000     3.397178
 H     0.000000     0.932960    -3.561772
 H    -0.000000    -0.932960    -3.561772

-------- ENERGY AND PROPERTIES --------

 Rotational constants:       288.0553944       1.3582874       1.3519127 GHz

 ECCSD(T)/aug-cc-pVTZ = -229.1403514 Eh

 MU_X      MU_Y      MU_Z       MU
 -0.000    -0.000    -6.702    6.702
