11
H2C8N+_1 (1-A1 / C2V)
 H     0.000000     0.934835    -5.574592
 H    -0.000000    -0.934835    -5.574592
 C     0.000000    -0.000000    -5.021451
 C     0.000000    -0.000000    -3.700731
 C     0.000000    -0.000000    -2.454051
 C     0.000000    -0.000000    -1.140195
 C     0.000000     0.000000     0.089429
 C     0.000000     0.000000     1.425439
 C     0.000000     0.000000     2.638542
 C     0.000000     0.000000     4.004935
 N     0.000000     0.000000     5.156809

-------- ENERGY AND PROPERTIES --------

 Rotational constants:       286.9010469       0.3920064       0.3914715 GHz

 ECCSD(T)/aug-cc-pVTZ = -359.61472432 Eh

 MU_X      MU_Y      MU_Z       MU
 -0.000    -0.000    -13.241    13.241
