11
H2C9_1A1 (1-A1 / C2V)
 C     0.000000     0.000000    -4.924512
 C     0.000000     0.000000    -3.615177
 C     0.000000     0.000000    -2.349732
 C     0.000000     0.000000    -1.065520
 C     0.000000    -0.000000     0.198126
 C     0.000000    -0.000000     1.483764
 C     0.000000    -0.000000     2.744143
 C     0.000000    -0.000000     4.040544
 C     0.000000    -0.000000     5.315648
 H     0.000000     0.929356    -5.481847
 H    -0.000000    -0.929356    -5.481847

-------- ENERGY AND PROPERTIES --------

 Rotational constants:       290.2938576       0.4077421       0.4071701 GHz

 ECCSD(T)/aug-cc-pVTZ = -343.15106474 Eh

 MU_X      MU_Y      MU_Z       MU
 -0.000    0.000    -10.189    10.189
