6
H2CCCO_1Ap (1-A' / CS)
 C     0.803055     1.650222     0.000000
 C     0.000000     0.609876     0.000000
 C    -0.277410    -0.647039     0.000000
 O    -0.682152    -1.736457     0.000000
 H     1.885196     1.547980     0.000000
 H     0.418150     2.665321     0.000000

-------- ENERGY AND PROPERTIES --------

 Rotational constants:       198.4407100       4.3243710       4.2321452 GHz

 ECCSD(T)/aug-cc-pVTZ = -190.35161927 Eh

 MU_X      MU_Y      MU_Z       MU
 1.811    2.458    0.000    3.053
