4
H2CO+_2 (2-B2 / C2V)
 O     0.000000     0.000000     0.661492
 C     0.000000     0.000000    -0.523372
 H     0.000000     0.971408    -1.075852
 H    -0.000000    -0.971408    -1.075852

-------- ENERGY AND PROPERTIES --------

 Rotational constants:       265.7043774       40.5354547       35.1699767 GHz

 EROCCSD(T)/aug-cc-pVTZ = -113.94236089 Eh

 MU_X      MU_Y      MU_Z       MU
 -0.000    0.000    -3.025    3.025
