4
H2CS+_2 (2-B2 / C2V)
 S     0.000000    -0.000000     0.574992
 C     0.000000     0.000000    -1.010046
 H     0.000000     0.939304    -1.569793
 H    -0.000000    -0.939304    -1.569793

-------- ENERGY AND PROPERTIES --------

 Rotational constants:       284.1775183       18.3300792       17.2193904 GHz

 EROCCSD(T)/aug-cc-pVTZ = -436.59873163 Eh

 MU_X      MU_Y      MU_Z       MU
 -0.000    -0.000    -2.013    2.013
