4
H2CS_1A1 (1-A1 / C2V)
 S     0.000000     0.000000     0.581604
 C     0.000000    -0.000000    -1.019437
 H     0.000000     0.922202    -1.594521
 H    -0.000000    -0.922202    -1.594521

-------- ENERGY AND PROPERTIES --------

 Rotational constants:       294.8152477       17.9242205       16.8969192 GHz

 ECCSD(T)/aug-cc-pVTZ = -436.94141216 Eh

 MU_X      MU_Y      MU_Z       MU
 -0.000    -0.000    -2.136    2.136
