3
H2O_1A1 (1-A1 / C2V)
 O    -0.000000     0.000000     0.116954
 H     0.000000     0.759949    -0.467814
 H    -0.000000    -0.759949    -0.467814

-------- ENERGY AND PROPERTIES --------

 Rotational constants:       825.6201171       434.1433620       284.5276112 GHz

 ECCSD(T)/aug-cc-pVTZ = -76.342304733 Eh

 MU_X      MU_Y      MU_Z       MU
 -0.000    -0.000    -1.978    1.978
