4
H2PO+_1 (1-A1 / C2V)
 H     0.000000     1.194995     1.146767
 H    -0.000000    -1.194995     1.146767
 P     0.000000     0.000000     0.401692
 O     0.000000    -0.000000    -1.039865

-------- ENERGY AND PROPERTIES --------

 Rotational constants:       175.5779138       20.3191403       18.2115667 GHz

 ECCSD(T)/aug-cc-pVTZ = -416.87799265 Eh

 MU_X      MU_Y      MU_Z       MU
 -0.000    0.000    5.343    5.343
