4
H2SiS_1A1 (1-A1 / C2V)
 S     0.000000     0.000000     1.023116
Si     0.000000     0.000000    -0.917262
 H     0.000000     1.209882    -1.764094
 H    -0.000000    -1.209882    -1.764094

-------- ENERGY AND PROPERTIES --------

 Rotational constants:       171.2836976       8.0114614       7.6534846 GHz

 ECCSD(T)/aug-cc-pVTZ = -687.99577981 Eh

 MU_X      MU_Y      MU_Z       MU
 0.000    0.000    -3.463    3.463
