5
H3SiO+_1 (1-A' / CS)
 H    -0.709043     1.659274     0.000000
 H    -1.229815    -1.283924     0.000000
 H     1.355220    -1.134587     0.000000
Si     0.026529    -0.535973     0.000000
 O     0.026529     1.032858     0.000000

-------- ENERGY AND PROPERTIES --------

 Rotational constants:       130.9325687       16.3726645       14.5528775 GHz

 ECCSD(T)/aug-cc-pVTZ = -365.71055976 Eh

 MU_X      MU_Y      MU_Z       MU
 -1.329    -1.851    0.000    2.278
