12
HC10N_3Sigma (3-SG / C*V)
 H     0.000000     0.000000    -7.415588
 C     0.000000     0.000000    -6.352142
 C     0.000000     0.000000    -5.143535
 C     0.000000     0.000000    -3.796050
 C     0.000000     0.000000    -2.558884
 C     0.000000     0.000000    -1.253092
 C     0.000000     0.000000     0.022745
 C     0.000000     0.000000     1.284887
 C     0.000000     0.000000     2.604441
 C     0.000000     0.000000     3.830483
 C     0.000000     0.000000     5.192079
 N     0.000000     0.000000     6.347142

-------- ENERGY AND PROPERTIES --------

 Rotational constants:       0.0000000       0.2205034       0.2205034 GHz

 EROCCSD(T)/aug-cc-pVTZ = -435.29276814 Eh

 MU_X      MU_Y      MU_Z       MU
 0.000    0.000    -6.730    6.730
