4
HC2P_3Sigma (3-SG / C*V)
 H     0.000000     0.000000    -2.852743
 C     0.000000     0.000000    -1.789014
 C     0.000000     0.000000    -0.569346
 P     0.000000     0.000000     1.133527

-------- ENERGY AND PROPERTIES --------

 Rotational constants:       0.0000000       5.6140917       5.6140917 GHz

 EROCCSD(T)/aug-cc-pVTZ = -417.46011799 Eh

 MU_X      MU_Y      MU_Z       MU
 0.000    0.000    -1.145    1.145
