5
HC3S+_1 (1-SG / C*V)
 H     0.000000     0.000000    -3.531445
 C     0.000000     0.000000    -2.459041
 C     0.000000     0.000000    -1.251792
 C     0.000000     0.000000     0.088458
 S     0.000000     0.000000     1.579106

-------- ENERGY AND PROPERTIES --------

 Rotational constants:       0.0000000       2.7529053       2.7529053 GHz

 ECCSD(T)/aug-cc-pVTZ = -512.04393809 Eh

 MU_X      MU_Y      MU_Z       MU
 0.000    0.000    -1.892    1.892
