6
HC4O+_3 (3-SG / C*V)
 H     0.000000    -0.000000     3.631791
 C     0.000000    -0.000000     2.558508
 C     0.000000    -0.000000     1.306300
 C     0.000000    -0.000000     0.030094
 C    -0.000000     0.000000    -1.281889
 O    -0.000000     0.000000    -2.413733

-------- ENERGY AND PROPERTIES --------

 Rotational constants:       0.0000000       2.2457179       2.2457179 GHz

 EROCCSD(T)/aug-cc-pVTZ = -227.38798384 Eh

 MU_X      MU_Y      MU_Z       MU
 0.000    -0.000    4.505    4.505
