7
HC5N_1Sigma (1-SG / C*V)
 H     0.000000     0.000000    -4.198230
 C     0.000000     0.000000    -3.134765
 C     0.000000     0.000000    -1.934763
 C     0.000000     0.000000    -0.566603
 C     0.000000     0.000000     0.637302
 C     0.000000     0.000000     2.010667
 N     0.000000     0.000000     3.161029

-------- ENERGY AND PROPERTIES --------

 Rotational constants:       0.0000000       1.3386415       1.3386415 GHz

 ECCSD(T)/aug-cc-pVTZ = -245.30133893 Eh

 MU_X      MU_Y      MU_Z       MU
 0.000    0.000    -4.829    4.829
