7
HC5N+_2 (2-X / C*V)
 H     0.000000     0.000000    -4.207541
 C     0.000000     0.000000    -3.134026
 C     0.000000     0.000000    -1.909069
 C     0.000000     0.000000    -0.584203
 C     0.000000     0.000000     0.647364
 C     0.000000     0.000000     1.997457
 N     0.000000     0.000000     3.157487

-------- ENERGY AND PROPERTIES --------

 Rotational constants:       0.0000000       1.3447449       1.3447449 GHz

 EROCCSD(T)/aug-cc-pVTZ = -244.91490257 Eh

 MU_X      MU_Y      MU_Z       MU
 0.000    0.000    -7.395    7.395
