7
HC5O+_1 (1-SG / C*V)
 H     0.000000     0.000000    -4.259422
 C     0.000000     0.000000    -3.188222
 C     0.000000     0.000000    -1.982770
 C     0.000000     0.000000    -0.640295
 C     0.000000     0.000000     0.579145
 C     0.000000     0.000000     1.905769
 O     0.000000     0.000000     3.027207

-------- ENERGY AND PROPERTIES --------

 Rotational constants:       0.0000000       1.3082104       1.3082104 GHz

 ECCSD(T)/aug-cc-pVTZ = -265.46015452 Eh

 MU_X      MU_Y      MU_Z       MU
 0.000    0.000    -2.586    2.586
