9
HC7O+_1 (1-SG / C*V)
 H     0.000000     0.000000     5.552571
 C     0.000000     0.000000     4.483670
 C     0.000000     0.000000     3.278999
 C     0.000000     0.000000     1.931967
 C     0.000000     0.000000     0.711620
 C    -0.000000    -0.000000    -0.614689
 C    -0.000000    -0.000000    -1.841505
 C    -0.000000    -0.000000    -3.160665
 O    -0.000000    -0.000000    -4.286119

-------- ENERGY AND PROPERTIES --------

 Rotational constants:       0.0000000       0.5548447       0.5548447 GHz

 ECCSD(T)/aug-cc-pVTZ = -341.48405983 Eh

 MU_X      MU_Y      MU_Z       MU
 0.000    0.000    1.022    1.022
