10
HC8N+_2 (2-Pi / C*V)
 H     0.000000     0.000000    -6.123300
 C     0.000000     0.000000    -5.052711
 C     0.000000     0.000000    -3.836408
 C     0.000000     0.000000    -2.515459
 C     0.000000     0.000000    -1.257363
 C     0.000000     0.000000     0.012441
 C     0.000000     0.000000     1.317877
 C     0.000000     0.000000     2.546588
 C     0.000000     0.000000     3.903529
 N     0.000000     0.000000     5.058905

-------- ENERGY AND PROPERTIES --------

 Rotational constants:       0.0000000       0.4026218       0.4026218 GHz

 EROCCSD(T)/aug-cc-pVTZ = -358.96407704 Eh

 MU_X      MU_Y      MU_Z       MU
 0.000    0.000    -8.870    8.870
