3
HCN_1Sigma (1-SG / C*V)
 H     0.000000     0.000000    -1.560992
 C     0.000000     0.000000    -0.495157
 N     0.000000     0.000000     0.647420

-------- ENERGY AND PROPERTIES --------

 Rotational constants:       0.0000000       45.2106434       45.2106434 GHz

 ECCSD(T)/aug-cc-pVTZ = -93.28049591 Eh

 MU_X      MU_Y      MU_Z       MU
 0.000    0.000    -3.287    3.287
