3
HCO+_1 (1-SG / C*V)
 H     0.000000    -0.000000    -1.608408
 C     0.000000    -0.000000    -0.512052
 O    -0.000000     0.000000     0.585090

-------- ENERGY AND PROPERTIES --------

 Rotational constants:       0.0000000       45.3594706       45.3594706 GHz

 ECCSD(T)/aug-cc-pVTZ = -113.39680633 Eh

 MU_X      MU_Y      MU_Z       MU
 0.000    -0.000    -4.171    4.171
