8
HCOCH2OH_1Ap (1-A' / CS)
 O     1.338952     0.550002     0.000000
 O    -0.504875    -1.382647     0.000000
 C     0.000000     0.930033     0.000000
 C    -0.922239    -0.256323     0.000000
 H    -2.004940    -0.043045     0.000000
 H     1.352990    -0.416582     0.000000
 H    -0.243614     1.539268     0.879673
 H    -0.243614     1.539268    -0.879673

-------- ENERGY AND PROPERTIES --------

 Rotational constants:       18.6316203       6.6172612       5.0347527 GHz

 ECCSD(T)/aug-cc-pVTZ = -228.7280464 Eh

 MU_X      MU_Y      MU_Z       MU
 -2.225    1.759    -0.000    2.836
