9
HCOCH2OH2+_1 (1-A' / CS)
 C     0.000000     0.961550     0.000000
 C    -0.956165    -0.157097     0.000000
 H    -2.035937    -0.026455     0.000000
 O    -0.536099    -1.329681     0.000000
 H    -0.221920     1.578700     0.884092
 H    -0.221920     1.578700    -0.884092
 O     1.259044     0.374600     0.000000
 H     1.975847     1.017816     0.000000
 H     0.457360    -1.334829     0.000000

-------- ENERGY AND PROPERTIES --------

 Rotational constants:       17.0945080       6.9626428       5.1049803 GHz

 ECCSD(T)/aug-cc-pVTZ = -229.03676388 Eh

 MU_X      MU_Y      MU_Z       MU
 -1.277    2.119    -0.000    2.474
