5
HCOOH+_2 (2-A' / CS)
 C     0.000000     0.408747     0.000000
 O     1.171665    -0.037629     0.000000
 O    -1.045122    -0.298283    -0.000000
 H    -0.916501    -1.270510    -0.000000
 H    -0.095846     1.505329     0.000000

-------- ENERGY AND PROPERTIES --------

 Rotational constants:       77.4761919       12.2964248       10.6121466 GHz

 EROCCSD(T)/aug-cc-pVTZ = -189.10314345 Eh

 MU_X      MU_Y      MU_Z       MU
 -0.356    0.244    0.000    0.432
