3
HCS+_1 (1-SG / C*V)
 H     0.000000     0.000000    -2.057158
 C     0.000000     0.000000    -0.973599
 S    -0.000000    -0.000000     0.493672

-------- ENERGY AND PROPERTIES --------

 Rotational constants:       0.0000000       21.6525801       21.6525801 GHz

 ECCSD(T)/aug-cc-pVTZ = -436.00885905 Eh

 MU_X      MU_Y      MU_Z       MU
 0.000    0.000    -1.964    1.964
