3
HCS_2Ap (2-A' / CS)
 H    -0.770170     1.781028    -0.000000
 C     0.035008     1.048947    -0.000000
 S     0.035008    -0.504669     0.000000

-------- ENERGY AND PROPERTIES --------

 Rotational constants:       922.9222839       20.5721276       20.1235691 GHz

 EROCCSD(T)/aug-cc-pVTZ = -436.28467942 Eh

 MU_X      MU_Y      MU_Z       MU
 -0.851    1.099    -0.000    1.389
