3
HNC+_2 (2-SG / C*V)
 H     0.000000     0.000000     1.433470
 N     0.000000     0.000000     0.410515
 C     0.000000     0.000000    -0.717846

-------- ENERGY AND PROPERTIES --------

 Rotational constants:       0.0000000       47.9503644       47.9503644 GHz

 EROCCSD(T)/aug-cc-pVTZ = -92.817950599 Eh

 MU_X      MU_Y      MU_Z       MU
 0.000    0.000    0.148    0.148
