5
HNCCC_1Ap (1-A' / CS)
 H     0.281993     2.598354     0.000000
 N    -0.075573     1.666816     0.000000
 C     0.000000     0.500110     0.000000
 C     0.001347    -0.809789     0.000000
 C     0.039823    -2.067998     0.000000

-------- ENERGY AND PROPERTIES --------

 Rotational constants:       3637.5882020       4.6877954       4.6817619 GHz

 ECCSD(T)/aug-cc-pVTZ = -169.20523873 Eh

 MU_X      MU_Y      MU_Z       MU
 0.632    6.002    0.000    6.035
