4
HNCO+_2 (2-A" / CS)
 H     1.256231    -1.486428     0.000000
 N     0.275463    -1.160874     0.000000
 C     0.000000     0.085318     0.000000
 O    -0.398059     1.137580     0.000000

-------- ENERGY AND PROPERTIES --------

 Rotational constants:       739.9327338       10.9147406       10.7560778 GHz

 EROCCSD(T)/aug-cc-pVTZ = -168.02121718 Eh

 MU_X      MU_Y      MU_Z       MU
 2.559    -2.308    0.000    3.446
