4
HNCO_1Ap (1-A' / CS)
 H     1.217044    -1.492316     0.000000
 N     0.280992    -1.126392     0.000000
 C     0.000000     0.047760     0.000000
 O    -0.397998     1.136313     0.000000

-------- ENERGY AND PROPERTIES --------

 Rotational constants:       872.3487194       11.1909281       11.0491836 GHz

 ECCSD(T)/aug-cc-pVTZ = -168.44533456 Eh

 MU_X      MU_Y      MU_Z       MU
 1.962    -1.104    0.000    2.251
