3
HNO_1Ap (1-A' / CS)
 H    -0.939846     0.907285     0.000000
 N     0.062656     0.574152     0.000000
 O     0.062656    -0.615793     0.000000

-------- ENERGY AND PROPERTIES --------

 Rotational constants:       564.3714234       43.6814718       40.5434701 GHz

 ECCSD(T)/aug-cc-pVTZ = -130.30890817 Eh

 MU_X      MU_Y      MU_Z       MU
 -1.539    1.150    0.000    1.921
