4
HOCN_1Ap (1-A' / CS)
 H     0.679898    -1.556819     0.000000
 O    -0.172352    -1.102342     0.000000
 C    -0.000000     0.182001     0.000000
 N     0.099845     1.326221     0.000000

-------- ENERGY AND PROPERTIES --------

 Rotational constants:       675.2560485       10.7136756       10.5463463 GHz

 ECCSD(T)/aug-cc-pVTZ = -168.40685777 Eh

 MU_X      MU_Y      MU_Z       MU
 1.317    -3.855    -0.000    4.074
