4
HOOH_1A1 (1-A / C2)
 H    -0.786155     0.900138     0.465743
 H     0.786155    -0.900138     0.465743
 O     0.000000     0.711853    -0.058218
 O    -0.000000    -0.711853    -0.058218

-------- ENERGY AND PROPERTIES --------

 Rotational constants:       307.2900658       27.3387636       26.4744618 GHz

 ECCSD(T)/aug-cc-pVTZ = -151.37362491 Eh

 MU_X      MU_Y      MU_Z       MU
 -0.000    0.000    1.869    1.869
