3
HPO_1Ap (1-A' / CS)
 H    -1.356409    -0.827150    -0.000000
 P     0.058974    -0.479184    -0.000000
 O     0.058974     1.001864     0.000000

-------- ENERGY AND PROPERTIES --------

 Rotational constants:       264.3189950       21.1294063       19.5653695 GHz

 ECCSD(T)/aug-cc-pVTZ = -416.6205148 Eh

 MU_X      MU_Y      MU_Z       MU
 -0.534    -2.774    -0.000    2.825
