3
HS2_2App (2-A" / CS)
 S     0.040113     1.023511     0.000000
 S     0.040113    -0.947823    -0.000000
 H    -1.283619    -1.211001    -0.000000

-------- ENERGY AND PROPERTIES --------

 Rotational constants:       298.1289849       7.9318541       7.7262927 GHz

 EROCCSD(T)/aug-cc-pVTZ = -796.05806919 Eh

 MU_X      MU_Y      MU_Z       MU
 -0.940    -0.775    -0.000    1.218
