4
HSiNH+_1 (1-SG / C*V)
 H     0.000000     0.000000    -1.960952
Si     0.000000     0.000000    -0.501669
 N    -0.000000    -0.000000     0.997138
 H    -0.000000    -0.000000     2.004359

-------- ENERGY AND PROPERTIES --------

 Rotational constants:       0.0000000       17.4942161       17.4942161 GHz

 ECCSD(T)/aug-cc-pVTZ = -344.55279994 Eh

 MU_X      MU_Y      MU_Z       MU
 0.000    0.000    -3.460    3.460
