4
HSiO2+_1 (1-A' / CS)
 H     0.842558    -2.133916     0.000000
Si     0.000000     0.086910     0.000000
 O     0.166834    -1.437251     0.000000
 O    -0.272154     1.551898    -0.000000

-------- ENERGY AND PROPERTIES --------

 Rotational constants:       1586.7030675       6.4539730       6.4278276 GHz

 ECCSD(T)/aug-cc-pVTZ = -439.61002675 Eh

 MU_X      MU_Y      MU_Z       MU
 2.184    -5.041    -0.000    5.494
