3
HSiS+_1 (1-SG / C*V)
 H     0.000000    -0.000000     2.388000
Si     0.000000    -0.000000     0.919066
 S    -0.000000     0.000000    -0.953433

-------- ENERGY AND PROPERTIES --------

 Rotational constants:       0.0000000       8.6610460       8.6610460 GHz

 ECCSD(T)/aug-cc-pVTZ = -687.06071191 Eh

 MU_X      MU_Y      MU_Z       MU
 0.000    -0.000    5.168    5.168
