3
HSO+_1 (1-A' / CS)
 H    -1.294316    -0.763953     0.000000
 S     0.053930    -0.446458     0.000000
 O     0.053930     0.988410    -0.000000

-------- ENERGY AND PROPERTIES --------

 Rotational constants:       290.3749851       22.3330368       20.7380520 GHz

 ECCSD(T)/aug-cc-pVTZ = -473.05296062 Eh

 MU_X      MU_Y      MU_Z       MU
 -1.223    -3.104    0.000    3.336
