4
l-C3H_2Pi (i-X / C*V)
 H     0.000000     0.000000    -2.210319
 C     0.000000     0.000000    -1.145747
 C     0.000000     0.000000     0.087112
 C     0.000000     0.000000     1.427020

-------- ENERGY AND PROPERTIES --------

 Rotational constants:       0.0000000       11.2121282       11.2121282 GHz

 EROCCSD(T)/aug-cc-pVTZ = -114.46325449 Eh

 MU_X      MU_Y      MU_Z       MU
 0.000    0.000    -3.414    3.414
