6
l-C3H3+_1 (1-A1 / C2V)
 H     0.000000     0.937254    -1.789034
 H    -0.000000    -0.937254    -1.789034
 H     0.000000    -0.000000     2.400785
 C     0.000000     0.000000    -1.236509
 C     0.000000    -0.000000     0.106371
 C     0.000000    -0.000000     1.326353

-------- ENERGY AND PROPERTIES --------

 Rotational constants:       285.4220070       9.7527628       9.4305253 GHz

 ECCSD(T)/aug-cc-pVTZ = -115.4693471 Eh

 MU_X      MU_Y      MU_Z       MU
 -0.000    -0.000    -0.727    0.727
