4
l-SiC3+_2 (2-X / C*V)
Si    -0.000000    -0.000000     1.737398
 C     0.000000     0.000000    -0.069256
 C     0.000000     0.000000    -1.319372
 C     0.000000     0.000000    -2.665301

-------- ENERGY AND PROPERTIES --------

 Rotational constants:       0.0000000       2.6509288       2.6509288 GHz

 EROCCSD(T)/aug-cc-pVTZ = -402.51297091 Eh

 MU_X      MU_Y      MU_Z       MU
 0.000    -0.000    1.129    1.129
