3
NCO_2Pi (i-X / C*V)
 N     0.000000     0.000000    -1.259842
 C     0.000000     0.000000    -0.037554
 O     0.000000     0.000000     1.130528

-------- ENERGY AND PROPERTIES --------

 Rotational constants:       0.0000000       11.8395601       11.8395601 GHz

 EROCCSD(T)/aug-cc-pVTZ = -167.76213755 Eh

 MU_X      MU_Y      MU_Z       MU
 0.000    0.000    0.311    0.311
