2
NH+_2 (2-X / C*V)
 N     0.000000     0.000000     0.134229
 H     0.000000     0.000000    -0.939604

-------- ENERGY AND PROPERTIES --------

 Rotational constants:       0.0000000       466.1673839       466.1673839 GHz

 EROCCSD(T)/aug-cc-pVTZ = -54.651606448 Eh

 MU_X      MU_Y      MU_Z       MU
 0.000    0.000    -1.834    1.834
