3
NH2+_3 (3-B1 / C2V)
 N    -0.000000     0.000000     0.055892
 H     0.000000     1.001883    -0.195623
 H    -0.000000    -1.001883    -0.195623

-------- ENERGY AND PROPERTIES --------

 Rotational constants:       4533.9718125       249.7859726       236.7432905 GHz

 EROCCSD(T)/aug-cc-pVTZ = -55.390592746 Eh

 MU_X      MU_Y      MU_Z       MU
 -0.000    -0.000    -0.559    0.559
