6
NH2CNH+_1 (1-A1 / C2V)
 H     0.000000     0.875585    -1.689727
 H    -0.000000    -0.875585    -1.689727
 N     0.000000     0.000000    -1.177597
 C     0.000000    -0.000000     0.105245
 N     0.000000    -0.000000     1.247912
 H     0.000000    -0.000000     2.255787

-------- ENERGY AND PROPERTIES --------

 Rotational constants:       327.0434346       9.6792226       9.4009896 GHz

 ECCSD(T)/aug-cc-pVTZ = -148.87579529 Eh

 MU_X      MU_Y      MU_Z       MU
 -0.000    -0.000    -0.180    0.180
