4
NH3+_2 (2-A2" / D3H)
 N     0.000000     0.000000     0.000000
 H    -0.000000     1.023940     0.000000
 H    -0.886758    -0.511970     0.000000
 H     0.886758    -0.511970     0.000000

-------- ENERGY AND PROPERTIES --------

 Rotational constants:       318.8539339       318.8539339       159.4269670 GHz

 EROCCSD(T)/aug-cc-pVTZ = -56.107633647 Eh

 MU_X      MU_Y      MU_Z       MU
 -0.000    -0.000    0.000    0.000
