2
NH_3Sigma (3-SG / C*V)
 N     0.000000     0.000000     0.129574
 H     0.000000     0.000000    -0.907015

-------- ENERGY AND PROPERTIES --------

 Rotational constants:       0.0000000       500.2673790       500.2673790 GHz

 EROCCSD(T)/aug-cc-pVTZ = -55.14504448 Eh

 MU_X      MU_Y      MU_Z       MU
 0.000    0.000    -1.614    1.614
