3
OCS_1Sigma (1-SG / C*V)
 O     0.000000     0.000000    -1.676777
 C     0.000000     0.000000    -0.527887
 S     0.000000     0.000000     1.036347

-------- ENERGY AND PROPERTIES --------

 Rotational constants:       0.0000000       6.1144328       6.1144328 GHz

 ECCSD(T)/aug-cc-pVTZ = -510.92975808 Eh

 MU_X      MU_Y      MU_Z       MU
 0.000    0.000    0.666    0.666
