2
OH_2Pi (i-X / C*V)
 O     0.000000     0.000000     0.107943
 H     0.000000     0.000000    -0.863544

-------- ENERGY AND PROPERTIES --------

 Rotational constants:       0.0000000       564.8004687       564.8004687 GHz

 EROCCSD(T)/aug-cc-pVTZ = -75.64555112 Eh

 MU_X      MU_Y      MU_Z       MU
 0.000    0.000    -1.762    1.762
