5
PC3H+_2 (2-Pi / C*V)
 H     0.000000     0.000000    -3.529486
 C     0.000000     0.000000    -2.457250
 C     0.000000     0.000000    -1.233855
 C     0.000000     0.000000     0.092384
 P     0.000000     0.000000     1.674788

-------- ENERGY AND PROPERTIES --------

 Rotational constants:       0.0000000       2.6616530       2.6616530 GHz

 EROCCSD(T)/aug-cc-pVTZ = -455.15071838 Eh

 MU_X      MU_Y      MU_Z       MU
 0.000    0.000    -1.002    1.002
