7
PC4H2+_1 (1-A1 / C2V)
 H     0.000000     0.935010    -3.658177
 C     0.000000    -0.000000    -3.104210
 C     0.000000    -0.000000    -1.784322
 C     0.000000    -0.000000    -0.535176
 C     0.000000     0.000000     0.783505
 P     0.000000     0.000000     2.343839
 H    -0.000000    -0.935010    -3.658177

-------- ENERGY AND PROPERTIES --------

 Rotational constants:       286.7936620       1.4013029       1.3944893 GHz

 ECCSD(T)/aug-cc-pVTZ = -493.81647475 Eh

 MU_X      MU_Y      MU_Z       MU
 -0.000    -0.000    -3.268    3.268
