5
PCH3+_2 (2-A" / CS)
 H    -0.344365     1.537458     0.917503
 H    -0.344365     1.537458    -0.917503
 H     1.111848     1.093211     0.000000
 C    -0.020148     1.041374    -0.000000
 P    -0.020148    -0.694425     0.000000

-------- ENERGY AND PROPERTIES --------

 Rotational constants:       158.3139885       14.4750954       14.3920998 GHz

 EROCCSD(T)/aug-cc-pVTZ = -380.35410515 Eh

 MU_X      MU_Y      MU_Z       MU
 0.081    0.236    -0.000    0.249
