3
PH2_2B1 (2-B1 / C2V)
 P    -0.000000     0.000000     0.116017
 H     0.000000     1.017041    -0.870127
 H    -0.000000    -1.017041    -0.870127

-------- ENERGY AND PROPERTIES --------

 Rotational constants:       274.6009308       242.3958270       128.7476540 GHz

 EROCCSD(T)/aug-cc-pVTZ = -342.05986957 Eh

 MU_X      MU_Y      MU_Z       MU
 0.000    -0.000    -0.657    0.657
