4
PH3+_2 (2-A1 / C3V)
 H    -0.000000     1.343248    -0.324576
 H    -1.163287    -0.671624    -0.324576
 H     1.163287    -0.671624    -0.324576
 P     0.000000     0.000000     0.064915

-------- ENERGY AND PROPERTIES --------

 Rotational constants:       160.6657203       160.6657203       92.6399680 GHz

 EROCCSD(T)/aug-cc-pVTZ = -342.33634594 Eh

 MU_X      MU_Y      MU_Z       MU
 -0.000    0.000    -0.359    0.359
