4
PNH2+_2 (2-B2 / C2V)
 P     0.000000    -0.000000     0.643000
 N     0.000000     0.000000    -0.946574
 H     0.000000     0.853365    -1.509495
 H    -0.000000    -0.853365    -1.509495

-------- ENERGY AND PROPERTIES --------

 Rotational constants:       344.2963411       17.0350404       16.2319200 GHz

 EROCCSD(T)/aug-cc-pVTZ = -396.45705004 Eh

 MU_X      MU_Y      MU_Z       MU
 -0.000    -0.000    -1.141    1.141
