5
SiC2H2+_2 (2-B2 / C2V)
 H     0.000000     0.932120    -2.345277
 H    -0.000000    -0.932120    -2.345277
 C     0.000000     0.000000    -1.778155
 C     0.000000     0.000000    -0.477546
Si     0.000000    -0.000000     1.301769

-------- ENERGY AND PROPERTIES --------

 Rotational constants:       288.5748030       5.1162518       5.0271240 GHz

 EROCCSD(T)/aug-cc-pVTZ = -365.90847664 Eh

 MU_X      MU_Y      MU_Z       MU
 -0.000    0.000    -0.038    0.038
