6
SiC2H3+_1 (1-A' / CS)
 H    -0.157059     2.020970     0.000000
 H     2.182790     0.738306     0.000000
 H     1.239472    -0.804539     0.000000
 C     1.179096     0.319595     0.000000
 C     0.000000     0.954028     0.000000
Si    -0.738556    -0.685463    -0.000000

-------- ENERGY AND PROPERTIES --------

 Rotational constants:       33.4968045       9.4311537       7.3591553 GHz

 ECCSD(T)/aug-cc-pVTZ = -366.56534225 Eh

 MU_X      MU_Y      MU_Z       MU
 0.044    -0.219    0.000    0.224
