6
SiC4H_2Pi (i-X / C*V)
 H     0.000000     0.000000    -4.203957
 C     0.000000     0.000000    -3.141155
 C     0.000000     0.000000    -1.936248
 C     0.000000     0.000000    -0.575496
 C     0.000000     0.000000     0.653526
Si     0.000000     0.000000     2.442872

-------- ENERGY AND PROPERTIES --------

 Rotational constants:       0.0000000       1.4154775       1.4154775 GHz

 EROCCSD(T)/aug-cc-pVTZ = -441.60403559 Eh

 MU_X      MU_Y      MU_Z       MU
 0.000    0.000    -1.402    1.402
