8
SiC6H_2Pi (i-X / C*V)
 H     0.000000     0.000000    -5.516852
 C     0.000000     0.000000    -4.453912
 C     0.000000     0.000000    -3.250588
 C     0.000000     0.000000    -1.888861
 C     0.000000     0.000000    -0.672996
 C     0.000000     0.000000     0.673957
 C     0.000000     0.000000     1.908772
Si     0.000000     0.000000     3.687043

-------- ENERGY AND PROPERTIES --------

 Rotational constants:       0.0000000       0.5789147       0.5789147 GHz

 EROCCSD(T)/aug-cc-pVTZ = -517.62039942 Eh

 MU_X      MU_Y      MU_Z       MU
 0.000    0.000    -1.498    1.498
