6
SiCH4+_2 (2-A' / CS)
 C     1.177381    -0.000009     0.000000
 H     1.647241    -0.980040     0.000000
 H     1.481114     0.572619     0.885969
 H     1.481114     0.572619    -0.885969
Si    -0.648249    -0.052848     0.000000
 H    -1.401916     1.226253     0.000000

-------- ENERGY AND PROPERTIES --------

 Rotational constants:       105.4951304       12.9216573       12.4058308 GHz

 EROCCSD(T)/aug-cc-pVTZ = -329.12321628 Eh

 MU_X      MU_Y      MU_Z       MU
 -0.021    -1.223    0.000    1.224
