5
SiCH3+_1 (1-A1 / C3V)
Si     0.000000     0.000000     0.759212
 C     0.000000     0.000000    -1.050540
 H     0.000000     1.026938    -1.441910
 H    -0.889354    -0.513469    -1.441910
 H     0.889354    -0.513469    -1.441910

-------- ENERGY AND PROPERTIES --------

 Rotational constants:       158.4974768       13.7237606       13.7237606 GHz

 ECCSD(T)/aug-cc-pVTZ = -328.54752658 Eh

 MU_X      MU_Y      MU_Z       MU
 -0.000    -0.000    0.750    0.750
