5
SiCH3_2App (2-A" / CS)
Si    -0.009377    -0.791380     0.000000
 C    -0.009377     1.100574    -0.000000
 H     1.062113     1.353499    -0.000000
 H    -0.437283     1.561191     0.891577
 H    -0.437283     1.561191    -0.891577

-------- ENERGY AND PROPERTIES --------

 Rotational constants:       161.6284614       12.6706222       12.6459794 GHz

 EROCCSD(T)/aug-cc-pVTZ = -328.80612543 Eh

 MU_X      MU_Y      MU_Z       MU
 -0.050    1.271    0.000    1.272
