3
SiH2+_2 (2-A1 / C2V)
Si    -0.000000     0.000000     0.093728
 H     0.000000     1.278586    -0.656096
 H    -0.000000    -1.278586    -0.656096

-------- ENERGY AND PROPERTIES --------

 Rotational constants:       478.0762391       153.3706193       116.1187959 GHz

 EROCCSD(T)/aug-cc-pVTZ = -289.83995026 Eh

 MU_X      MU_Y      MU_Z       MU
 0.000    -0.000    0.116    0.116
