4
SiH3_2Ap (2-A1 / C3V)
Si     0.000000     0.000000     0.080344
 H     0.000000     1.406557    -0.374941
 H    -1.218114    -0.703278    -0.374941
 H     1.218114    -0.703278    -0.374941

-------- ENERGY AND PROPERTIES --------

 Rotational constants:       142.1032668       142.1032668       84.4882139 GHz

 EROCCSD(T)/aug-cc-pVTZ = -290.78881659 Eh

 MU_X      MU_Y      MU_Z       MU
 0.000    -0.000    -0.044    0.044
