4
SiH3+_1 (1-A1' / D3H)
Si     0.000000     0.000000     0.000000
 H    -0.000000     1.464118     0.000000
 H    -1.267963    -0.732059     0.000000
 H     1.267963    -0.732059     0.000000

-------- ENERGY AND PROPERTIES --------

 Rotational constants:       155.9511701       155.9511701       77.9755850 GHz

 ECCSD(T)/aug-cc-pVTZ = -290.49274551 Eh

 MU_X      MU_Y      MU_Z       MU
 -0.000    -0.000    -0.000    0.000
