5
SiH4+_2 (2-A' / CS)
Si     0.000000     0.209990     0.000000
 H    -0.706509     0.028465     1.277376
 H    -0.706509     0.028465    -1.277376
 H     1.058229    -1.330002    -0.000000
 H     0.354789    -1.666789    -0.000000

-------- ENERGY AND PROPERTIES --------

 Rotational constants:       110.7440795       64.6708145       51.4172260 GHz

 EROCCSD(T)/aug-cc-pVTZ = -291.03669971 Eh

 MU_X      MU_Y      MU_Z       MU
 0.603    -1.063    -0.000    1.222
