4
SiNCH+_2 (2-A' / CS)
Si     0.000000     0.940143     0.000000
 N    -0.651233    -0.765343    -0.000000
 C     0.540496    -1.005703    -0.000000
 H     1.315654    -1.770374    -0.000000

-------- ENERGY AND PROPERTIES --------

 Rotational constants:       45.6712341       10.4711645       8.5181791 GHz

 EROCCSD(T)/aug-cc-pVTZ = -381.97526301 Eh

 MU_X      MU_Y      MU_Z       MU
 2.079    0.571    0.000    2.156
