2
SiS+_2 (2-SG / C*V)
Si     0.000000     0.000000    -1.021133
 S     0.000000     0.000000     0.893491

-------- ENERGY AND PROPERTIES --------

 Rotational constants:       0.0000000       9.2397737       9.2397737 GHz

 EROCCSD(T)/aug-cc-pVTZ = -686.42734003 Eh

 MU_X      MU_Y      MU_Z       MU
 0.000    0.000    -4.576    4.576
